<?xml version="1.0" encoding="UTF-8"?>

<!-- generated on 2023-06-06 08:10:00 by Eclipse SUMO netgenerate Version 1.17.0
<configuration xmlns:xsi="http://www.w3.org/2001/XMLSchema-instance" xsi:noNamespaceSchemaLocation="http://sumo.dlr.de/xsd/netgenerateConfiguration.xsd">

    <grid_network>
        <grid value="true"/>
        <grid.number value="5"/>
        <grid.length value="200"/>
    </grid_network>

    <output>
        <output-file value="grid.net.xml"/>
    </output>

    <building_defaults>
        <default.lanenumber value="13"/>
    </building_defaults>

</configuration>
-->

<net version="1.16" junctionCornerDetail="5" limitTurnSpeed="5.50" xmlns:xsi="http://www.w3.org/2001/XMLSchema-instance" xsi:noNamespaceSchemaLocation="http://sumo.dlr.de/xsd/net_file.xsd">

    <location netOffset="0.00,0.00" convBoundary="0.00,0.00,800.00,800.00" origBoundary="0.00,0.00,800.00,800.00" projParameter="!"/>

    <edge id=":A0_0" function="internal">
        <lane id=":A0_0_0" index="0" speed="13.89" length="131.60" shape="-40.00,41.60 -34.90,5.90 -19.60,-19.60 5.90,-34.90 41.60,-40.00"/>
        <lane id=":A0_0_1" index="1" speed="13.89" length="126.44" shape="-36.80,41.60 -31.90,7.30 -17.20,-17.20 7.30,-31.90 41.60,-36.80"/>
        <lane id=":A0_0_2" index="2" speed="13.89" length="121.28" shape="-33.60,41.60 -28.90,8.70 -14.80,-14.80 8.70,-28.90 41.60,-33.60"/>
        <lane id=":A0_0_3" index="3" speed="13.89" length="116.12" shape="-30.40,41.60 -25.90,10.10 -12.40,-12.40 10.10,-25.90 41.60,-30.40"/>
        <lane id=":A0_0_4" index="4" speed="13.89" length="110.96" shape="-27.20,41.60 -22.90,11.50 -10.00,-10.00 11.50,-22.90 41.60,-27.20"/>
        <lane id=":A0_0_5" index="5" speed="13.89" length="105.80" shape="-24.00,41.60 -19.90,12.90 -7.60,-7.60 12.90,-19.90 41.60,-24.00"/>
        <lane id=":A0_0_6" index="6" speed="13.89" length="100.64" shape="-20.80,41.60 -16.90,14.30 -5.20,-5.20 14.30,-16.90 41.60,-20.80"/>
        <lane id=":A0_0_7" index="7" speed="13.89" length="95.47" shape="-17.60,41.60 -13.90,15.70 -2.80,-2.80 15.70,-13.90 41.60,-17.60"/>
        <lane id=":A0_0_8" index="8" speed="13.89" length="90.31" shape="-14.40,41.60 -10.90,17.10 -0.40,-0.40 17.10,-10.90 41.60,-14.40"/>
        <lane id=":A0_0_9" index="9" speed="13.89" length="85.15" shape="-11.20,41.60 -7.90,18.50 2.00,2.00 18.50,-7.90 41.60,-11.20"/>
        <lane id=":A0_0_10" index="10" speed="13.89" length="79.99" shape="-8.00,41.60 -4.90,19.90 4.40,4.40 19.90,-4.90 41.60,-8.00"/>
        <lane id=":A0_0_11" index="11" speed="13.89" length="74.83" shape="-4.80,41.60 -1.90,21.30 6.80,6.80 21.30,-1.90 41.60,-4.80"/>
        <lane id=":A0_0_12" index="12" speed="13.89" length="69.67" shape="-1.60,41.60 1.10,22.70 9.20,9.20 22.70,1.10 41.60,-1.60"/>
    </edge>
    <edge id=":A0_13" function="internal">
        <lane id=":A0_13_0" index="0" speed="3.90" length="2.58" shape="41.60,40.00 40.90,40.10 40.40,40.40 40.10,40.90 40.00,41.60"/>
        <lane id=":A0_13_1" index="1" speed="6.08" length="7.74" shape="41.60,36.80 39.50,37.10 38.00,38.00 37.10,39.50 36.80,41.60"/>
        <lane id=":A0_13_2" index="2" speed="7.66" length="12.90" shape="41.60,33.60 38.10,34.10 35.60,35.60 34.10,38.10 33.60,41.60"/>
        <lane id=":A0_13_3" index="3" speed="8.96" length="18.06" shape="41.60,30.40 36.70,31.10 33.20,33.20 31.10,36.70 30.40,41.60"/>
        <lane id=":A0_13_4" index="4" speed="10.10" length="23.22" shape="41.60,27.20 35.30,28.10 30.80,30.80 28.10,35.30 27.20,41.60"/>
        <lane id=":A0_13_5" index="5" speed="11.12" length="28.38" shape="41.60,24.00 33.90,25.10 28.40,28.40 25.10,33.90 24.00,41.60"/>
        <lane id=":A0_13_6" index="6" speed="12.06" length="33.55" shape="41.60,20.80 32.50,22.10 26.00,26.00 22.10,32.50 20.80,41.60"/>
        <lane id=":A0_13_7" index="7" speed="12.92" length="38.71" shape="41.60,17.60 31.10,19.10 23.60,23.60 19.10,31.10 17.60,41.60"/>
        <lane id=":A0_13_8" index="8" speed="13.74" length="43.87" shape="41.60,14.40 29.70,16.10 21.20,21.20 16.10,29.70 14.40,41.60"/>
        <lane id=":A0_13_9" index="9" speed="13.89" length="49.03" shape="41.60,11.20 28.30,13.10 18.80,18.80 13.10,28.30 11.20,41.60"/>
        <lane id=":A0_13_10" index="10" speed="13.89" length="54.19" shape="41.60,8.00 26.90,10.10 16.40,16.40 10.10,26.90 8.00,41.60"/>
        <lane id=":A0_13_11" index="11" speed="13.89" length="59.35" shape="41.60,4.80 25.50,7.10 14.00,14.00 7.10,25.50 4.80,41.60"/>
        <lane id=":A0_13_12" index="12" speed="13.89" length="64.51" shape="41.60,1.60 24.10,4.10 11.60,11.60 4.10,24.10 1.60,41.60"/>
    </edge>
    <edge id=":A1_0" function="internal">
        <lane id=":A1_0_0" index="0" speed="13.89" length="91.27" shape="-40.00,245.60 -40.00,154.40"/>
        <lane id=":A1_0_1" index="1" speed="13.89" length="91.27" shape="-36.80,245.60 -36.80,154.40"/>
        <lane id=":A1_0_2" index="2" speed="13.89" length="91.27" shape="-33.60,245.60 -33.60,154.40"/>
        <lane id=":A1_0_3" index="3" speed="13.89" length="91.27" shape="-30.40,245.60 -30.40,154.40"/>
        <lane id=":A1_0_4" index="4" speed="13.89" length="91.27" shape="-27.20,245.60 -27.20,154.40"/>
        <lane id=":A1_0_5" index="5" speed="13.89" length="91.27" shape="-24.00,245.60 -24.00,154.40"/>
        <lane id=":A1_0_6" index="6" speed="13.89" length="91.27" shape="-20.80,245.60 -20.80,154.40"/>
        <lane id=":A1_0_7" index="7" speed="13.89" length="91.27" shape="-17.60,245.60 -17.60,154.40"/>
        <lane id=":A1_0_8" index="8" speed="13.89" length="91.27" shape="-14.40,245.60 -14.40,154.40"/>
        <lane id=":A1_0_9" index="9" speed="13.89" length="91.27" shape="-11.20,245.60 -11.20,154.40"/>
        <lane id=":A1_0_10" index="10" speed="13.89" length="91.27" shape="-11.20,245.60 -8.00,154.40"/>
        <lane id=":A1_0_11" index="11" speed="13.89" length="91.27" shape="-11.20,245.60 -4.80,154.40"/>
        <lane id=":A1_0_12" index="12" speed="13.89" length="91.27" shape="-11.20,245.60 -9.70,218.45 -6.40,200.00 -3.10,181.55 -1.60,154.40"/>
    </edge>
    <edge id=":A1_13" function="internal">
        <lane id=":A1_13_0" index="0" speed="13.89" length="39.48" shape="-8.00,245.60 -4.65,215.15 -0.94,207.12"/>
        <lane id=":A1_13_1" index="1" speed="13.89" length="30.94" shape="-4.80,245.60 -1.65,216.55 -0.94,214.99"/>
        <lane id=":A1_13_2" index="2" speed="13.89" length="6.65" shape="-1.60,245.60 -0.89,238.99"/>
        <lane id=":A1_13_3" index="3" speed="13.89" length="6.32" shape="-1.60,245.60 -0.89,239.32"/>
        <lane id=":A1_13_4" index="4" speed="13.89" length="5.99" shape="-1.60,245.60 -0.89,239.65"/>
        <lane id=":A1_13_5" index="5" speed="13.89" length="5.66" shape="-1.60,245.60 -0.89,239.98"/>
        <lane id=":A1_13_6" index="6" speed="13.89" length="5.34" shape="-1.60,245.60 -0.89,240.31"/>
        <lane id=":A1_13_7" index="7" speed="13.89" length="5.01" shape="-1.60,245.60 -0.89,240.64"/>
    </edge>
    <edge id=":A1_21" function="internal">
        <lane id=":A1_21_0" index="0" speed="3.65" length="1.44" shape="-1.60,245.60 -0.80,244.40"/>
    </edge>
    <edge id=":A1_67" function="internal">
        <lane id=":A1_67_0" index="0" speed="13.89" length="60.20" shape="-0.94,207.12 5.40,193.40 22.15,180.35 45.60,176.00"/>
    </edge>
    <edge id=":A1_68" function="internal">
        <lane id=":A1_68_0" index="0" speed="13.89" length="63.60" shape="-0.94,214.99 7.80,195.80 23.55,183.35 45.60,179.20"/>
    </edge>
    <edge id=":A1_69" function="internal">
        <lane id=":A1_69_0" index="0" speed="13.89" length="82.75" shape="-0.89,238.99 1.35,217.95 10.20,198.20 24.95,186.35 45.60,182.40"/>
    </edge>
    <edge id=":A1_70" function="internal">
        <lane id=":A1_70_0" index="0" speed="13.89" length="80.37" shape="-0.89,239.32 1.35,219.35 10.20,200.60 24.95,189.35 45.60,185.60"/>
    </edge>
    <edge id=":A1_71" function="internal">
        <lane id=":A1_71_0" index="0" speed="13.89" length="78.01" shape="-0.89,239.65 1.35,220.75 10.20,203.00 24.95,192.35 45.60,188.80"/>
    </edge>
    <edge id=":A1_72" function="internal">
        <lane id=":A1_72_0" index="0" speed="13.89" length="75.68" shape="-0.89,239.98 1.35,222.15 10.20,205.40 24.95,195.35 45.60,192.00"/>
    </edge>
    <edge id=":A1_73" function="internal">
        <lane id=":A1_73_0" index="0" speed="13.89" length="73.38" shape="-0.89,240.31 1.35,223.55 10.20,207.80 24.95,198.35 45.60,195.20"/>
    </edge>
    <edge id=":A1_74" function="internal">
        <lane id=":A1_74_0" index="0" speed="13.89" length="71.11" shape="-0.89,240.64 1.35,224.95 10.20,210.20 24.95,201.35 45.60,198.40"/>
    </edge>
    <edge id=":A1_75" function="internal">
        <lane id=":A1_75_0" index="0" speed="3.65" length="3.23" shape="-0.80,244.40 0.00,244.00 0.80,244.40 1.60,245.60"/>
    </edge>
    <edge id=":A1_22" function="internal">
        <lane id=":A1_22_0" index="0" speed="6.51" length="9.03" shape="45.60,240.00 43.15,240.35 41.40,241.40 40.35,243.15 40.00,245.60"/>
        <lane id=":A1_22_1" index="1" speed="8.00" length="14.19" shape="45.60,236.80 41.75,237.35 39.00,239.00 37.35,241.75 36.80,245.60"/>
        <lane id=":A1_22_2" index="2" speed="9.26" length="19.35" shape="45.60,233.60 40.35,234.35 36.60,236.60 34.35,240.35 33.60,245.60"/>
        <lane id=":A1_22_3" index="3" speed="10.36" length="24.51" shape="45.60,230.40 38.95,231.35 34.20,234.20 31.35,238.95 30.40,245.60"/>
        <lane id=":A1_22_4" index="4" speed="11.36" length="29.67" shape="45.60,227.20 37.55,228.35 31.80,231.80 28.35,237.55 27.20,245.60"/>
        <lane id=":A1_22_5" index="5" speed="12.28" length="34.84" shape="45.60,224.00 36.15,225.35 29.40,229.40 25.35,236.15 24.00,245.60"/>
        <lane id=":A1_22_6" index="6" speed="12.72" length="37.45" shape="45.60,224.00 34.75,225.35 27.00,229.40 22.35,236.15 20.80,245.60"/>
        <lane id=":A1_22_7" index="7" speed="13.15" length="40.13" shape="45.60,224.00 33.35,225.35 24.60,229.40 19.35,236.15 17.60,245.60"/>
        <lane id=":A1_22_8" index="8" speed="13.58" length="42.86" shape="45.60,224.00 31.95,225.35 22.20,229.40 16.35,236.15 14.40,245.60"/>
        <lane id=":A1_22_9" index="9" speed="13.89" length="45.63" shape="45.60,224.00 30.55,225.35 19.80,229.40 13.35,236.15 11.20,245.60"/>
    </edge>
    <edge id=":A1_32" function="internal">
        <lane id=":A1_32_0" index="0" speed="13.89" length="114.93" shape="45.60,220.80 12.35,216.65 -11.40,204.20 -25.65,183.45 -30.40,154.40"/>
        <lane id=":A1_32_1" index="1" speed="13.89" length="109.78" shape="45.60,217.60 13.75,213.65 -9.00,201.80 -22.65,182.05 -27.20,154.40"/>
        <lane id=":A1_32_2" index="2" speed="13.89" length="104.62" shape="45.60,214.40 15.15,210.65 -6.60,199.40 -19.65,180.65 -24.00,154.40"/>
        <lane id=":A1_32_3" index="3" speed="13.89" length="99.46" shape="45.60,211.20 16.55,207.65 -4.20,197.00 -16.65,179.25 -20.80,154.40"/>
        <lane id=":A1_32_4" index="4" speed="13.89" length="94.31" shape="45.60,208.00 17.95,204.65 -1.80,194.60 -13.65,177.85 -17.60,154.40"/>
        <lane id=":A1_32_5" index="5" speed="13.89" length="89.16" shape="45.60,204.80 19.35,201.65 0.60,192.20 -10.65,176.45 -14.40,154.40"/>
        <lane id=":A1_32_6" index="6" speed="13.89" length="84.00" shape="45.60,201.60 20.75,198.65 3.00,189.80 -7.65,175.05 -11.20,154.40"/>
        <lane id=":A1_32_7" index="7" speed="13.89" length="81.35" shape="45.60,201.60 22.15,198.65 5.40,189.80 -4.65,175.05 -8.00,154.40"/>
        <lane id=":A1_32_8" index="8" speed="13.89" length="78.72" shape="45.60,201.60 23.55,198.65 7.80,189.80 -1.65,175.05 -4.80,154.40"/>
        <lane id=":A1_32_9" index="9" speed="13.89" length="76.12" shape="45.60,201.60 24.95,198.65 10.20,189.80 1.35,175.05 -1.60,154.40"/>
    </edge>
    <edge id=":A1_42" function="internal">
        <lane id=":A1_42_0" index="0" speed="3.65" length="4.67" shape="45.60,201.60 44.40,200.80 44.00,200.00 44.40,199.20 45.60,198.40"/>
    </edge>
    <edge id=":A1_43" function="internal">
        <lane id=":A1_43_0" index="0" speed="6.51" length="9.03" shape="40.00,154.40 40.35,156.85 41.40,158.60 43.15,159.65 45.60,160.00"/>
        <lane id=":A1_43_1" index="1" speed="7.33" length="11.73" shape="40.00,154.40 40.35,158.25 41.40,161.00 43.15,162.65 45.60,163.20"/>
        <lane id=":A1_43_2" index="2" speed="8.10" length="14.57" shape="40.00,154.40 40.35,159.65 41.40,163.40 43.15,165.65 45.60,166.40"/>
        <lane id=":A1_43_3" index="3" speed="8.83" length="17.50" shape="40.00,154.40 40.35,161.05 41.40,165.80 43.15,168.65 45.60,169.60"/>
        <lane id=":A1_43_4" index="4" speed="9.51" length="20.48" shape="40.00,154.40 40.35,162.45 41.40,168.20 43.15,171.65 45.60,172.80"/>
        <lane id=":A1_43_5" index="5" speed="10.16" length="23.50" shape="40.00,154.40 40.35,163.85 41.40,170.60 43.15,174.65 45.60,176.00"/>
        <lane id=":A1_43_6" index="6" speed="10.77" length="26.54" shape="40.00,154.40 40.35,165.25 41.40,173.00 43.15,177.65 45.60,179.20"/>
        <lane id=":A1_43_7" index="7" speed="11.35" length="29.61" shape="40.00,154.40 40.35,166.65 41.40,175.40 43.15,180.65 45.60,182.40"/>
        <lane id=":A1_43_8" index="8" speed="11.91" length="32.70" shape="40.00,154.40 40.35,168.05 41.40,177.80 43.15,183.65 45.60,185.60"/>
        <lane id=":A1_43_9" index="9" speed="12.44" length="35.80" shape="40.00,154.40 40.35,169.45 41.40,180.20 43.15,186.65 45.60,188.80"/>
    </edge>
    <edge id=":A1_53" function="internal">
        <lane id=":A1_53_0" index="0" speed="13.89" length="91.20" shape="40.00,154.40 40.00,245.60"/>
        <lane id=":A1_53_1" index="1" speed="13.89" length="91.20" shape="36.80,154.40 36.80,245.60"/>
        <lane id=":A1_53_2" index="2" speed="13.89" length="91.20" shape="33.60,154.40 33.60,245.60"/>
        <lane id=":A1_53_3" index="3" speed="13.89" length="91.20" shape="30.40,154.40 30.40,245.60"/>
        <lane id=":A1_53_4" index="4" speed="13.89" length="91.20" shape="27.20,154.40 27.20,245.60"/>
        <lane id=":A1_53_5" index="5" speed="13.89" length="91.20" shape="24.00,154.40 24.00,245.60"/>
        <lane id=":A1_53_6" index="6" speed="13.89" length="91.20" shape="20.80,154.40 20.80,245.60"/>
        <lane id=":A1_53_7" index="7" speed="13.89" length="91.20" shape="17.60,154.40 17.60,245.60"/>
        <lane id=":A1_53_8" index="8" speed="13.89" length="91.20" shape="14.40,154.40 14.40,245.60"/>
        <lane id=":A1_53_9" index="9" speed="13.89" length="91.20" shape="11.20,154.40 11.20,245.60"/>
        <lane id=":A1_53_10" index="10" speed="13.89" length="91.20" shape="8.00,154.40 8.00,245.60"/>
        <lane id=":A1_53_11" index="11" speed="13.89" length="91.20" shape="4.80,154.40 4.80,245.60"/>
        <lane id=":A1_53_12" index="12" speed="13.89" length="91.20" shape="1.60,154.40 1.60,245.60"/>
    </edge>
    <edge id=":A1_66" function="internal">
        <lane id=":A1_66_0" index="0" speed="3.65" length="1.44" shape="1.60,154.40 0.80,155.60"/>
    </edge>
    <edge id=":A1_76" function="internal">
        <lane id=":A1_76_0" index="0" speed="3.65" length="3.23" shape="0.80,155.60 0.00,156.00 -0.80,155.60 -1.60,154.40"/>
    </edge>
    <edge id=":A2_0" function="internal">
        <lane id=":A2_0_0" index="0" speed="13.89" length="91.27" shape="-40.00,445.60 -40.00,354.40"/>
        <lane id=":A2_0_1" index="1" speed="13.89" length="91.27" shape="-36.80,445.60 -36.80,354.40"/>
        <lane id=":A2_0_2" index="2" speed="13.89" length="91.27" shape="-33.60,445.60 -33.60,354.40"/>
        <lane id=":A2_0_3" index="3" speed="13.89" length="91.27" shape="-30.40,445.60 -30.40,354.40"/>
        <lane id=":A2_0_4" index="4" speed="13.89" length="91.27" shape="-27.20,445.60 -27.20,354.40"/>
        <lane id=":A2_0_5" index="5" speed="13.89" length="91.27" shape="-24.00,445.60 -24.00,354.40"/>
        <lane id=":A2_0_6" index="6" speed="13.89" length="91.27" shape="-20.80,445.60 -20.80,354.40"/>
        <lane id=":A2_0_7" index="7" speed="13.89" length="91.27" shape="-17.60,445.60 -17.60,354.40"/>
        <lane id=":A2_0_8" index="8" speed="13.89" length="91.27" shape="-14.40,445.60 -14.40,354.40"/>
        <lane id=":A2_0_9" index="9" speed="13.89" length="91.27" shape="-11.20,445.60 -11.20,354.40"/>
        <lane id=":A2_0_10" index="10" speed="13.89" length="91.27" shape="-11.20,445.60 -8.00,354.40"/>
        <lane id=":A2_0_11" index="11" speed="13.89" length="91.27" shape="-11.20,445.60 -4.80,354.40"/>
        <lane id=":A2_0_12" index="12" speed="13.89" length="91.27" shape="-11.20,445.60 -9.70,418.45 -6.40,400.00 -3.10,381.55 -1.60,354.40"/>
    </edge>
    <edge id=":A2_13" function="internal">
        <lane id=":A2_13_0" index="0" speed="13.89" length="39.48" shape="-8.00,445.60 -4.65,415.15 -0.94,407.12"/>
        <lane id=":A2_13_1" index="1" speed="13.89" length="30.94" shape="-4.80,445.60 -1.65,416.55 -0.94,414.99"/>
        <lane id=":A2_13_2" index="2" speed="13.89" length="6.65" shape="-1.60,445.60 -0.89,438.99"/>
        <lane id=":A2_13_3" index="3" speed="13.89" length="6.32" shape="-1.60,445.60 -0.89,439.32"/>
        <lane id=":A2_13_4" index="4" speed="13.89" length="5.99" shape="-1.60,445.60 -0.89,439.65"/>
        <lane id=":A2_13_5" index="5" speed="13.89" length="5.66" shape="-1.60,445.60 -0.89,439.98"/>
        <lane id=":A2_13_6" index="6" speed="13.89" length="5.34" shape="-1.60,445.60 -0.89,440.31"/>
        <lane id=":A2_13_7" index="7" speed="13.89" length="5.01" shape="-1.60,445.60 -0.89,440.64"/>
    </edge>
    <edge id=":A2_21" function="internal">
        <lane id=":A2_21_0" index="0" speed="3.65" length="1.44" shape="-1.60,445.60 -0.80,444.40"/>
    </edge>
    <edge id=":A2_67" function="internal">
        <lane id=":A2_67_0" index="0" speed="13.89" length="60.20" shape="-0.94,407.12 5.40,393.40 22.15,380.35 45.60,376.00"/>
    </edge>
    <edge id=":A2_68" function="internal">
        <lane id=":A2_68_0" index="0" speed="13.89" length="63.60" shape="-0.94,414.99 7.80,395.80 23.55,383.35 45.60,379.20"/>
    </edge>
    <edge id=":A2_69" function="internal">
        <lane id=":A2_69_0" index="0" speed="13.89" length="82.75" shape="-0.89,438.99 1.35,417.95 10.20,398.20 24.95,386.35 45.60,382.40"/>
    </edge>
    <edge id=":A2_70" function="internal">
        <lane id=":A2_70_0" index="0" speed="13.89" length="80.37" shape="-0.89,439.32 1.35,419.35 10.20,400.60 24.95,389.35 45.60,385.60"/>
    </edge>
    <edge id=":A2_71" function="internal">
        <lane id=":A2_71_0" index="0" speed="13.89" length="78.01" shape="-0.89,439.65 1.35,420.75 10.20,403.00 24.95,392.35 45.60,388.80"/>
    </edge>
    <edge id=":A2_72" function="internal">
        <lane id=":A2_72_0" index="0" speed="13.89" length="75.68" shape="-0.89,439.98 1.35,422.15 10.20,405.40 24.95,395.35 45.60,392.00"/>
    </edge>
    <edge id=":A2_73" function="internal">
        <lane id=":A2_73_0" index="0" speed="13.89" length="73.38" shape="-0.89,440.31 1.35,423.55 10.20,407.80 24.95,398.35 45.60,395.20"/>
    </edge>
    <edge id=":A2_74" function="internal">
        <lane id=":A2_74_0" index="0" speed="13.89" length="71.11" shape="-0.89,440.64 1.35,424.95 10.20,410.20 24.95,401.35 45.60,398.40"/>
    </edge>
    <edge id=":A2_75" function="internal">
        <lane id=":A2_75_0" index="0" speed="3.65" length="3.23" shape="-0.80,444.40 0.00,444.00 0.80,444.40 1.60,445.60"/>
    </edge>
    <edge id=":A2_22" function="internal">
        <lane id=":A2_22_0" index="0" speed="6.51" length="9.03" shape="45.60,440.00 43.15,440.35 41.40,441.40 40.35,443.15 40.00,445.60"/>
        <lane id=":A2_22_1" index="1" speed="8.00" length="14.19" shape="45.60,436.80 41.75,437.35 39.00,439.00 37.35,441.75 36.80,445.60"/>
        <lane id=":A2_22_2" index="2" speed="9.26" length="19.35" shape="45.60,433.60 40.35,434.35 36.60,436.60 34.35,440.35 33.60,445.60"/>
        <lane id=":A2_22_3" index="3" speed="10.36" length="24.51" shape="45.60,430.40 38.95,431.35 34.20,434.20 31.35,438.95 30.40,445.60"/>
        <lane id=":A2_22_4" index="4" speed="11.36" length="29.67" shape="45.60,427.20 37.55,428.35 31.80,431.80 28.35,437.55 27.20,445.60"/>
        <lane id=":A2_22_5" index="5" speed="12.28" length="34.84" shape="45.60,424.00 36.15,425.35 29.40,429.40 25.35,436.15 24.00,445.60"/>
        <lane id=":A2_22_6" index="6" speed="12.72" length="37.45" shape="45.60,424.00 34.75,425.35 27.00,429.40 22.35,436.15 20.80,445.60"/>
        <lane id=":A2_22_7" index="7" speed="13.15" length="40.13" shape="45.60,424.00 33.35,425.35 24.60,429.40 19.35,436.15 17.60,445.60"/>
        <lane id=":A2_22_8" index="8" speed="13.58" length="42.86" shape="45.60,424.00 31.95,425.35 22.20,429.40 16.35,436.15 14.40,445.60"/>
        <lane id=":A2_22_9" index="9" speed="13.89" length="45.63" shape="45.60,424.00 30.55,425.35 19.80,429.40 13.35,436.15 11.20,445.60"/>
    </edge>
    <edge id=":A2_32" function="internal">
        <lane id=":A2_32_0" index="0" speed="13.89" length="114.93" shape="45.60,420.80 12.35,416.65 -11.40,404.20 -25.65,383.45 -30.40,354.40"/>
        <lane id=":A2_32_1" index="1" speed="13.89" length="109.78" shape="45.60,417.60 13.75,413.65 -9.00,401.80 -22.65,382.05 -27.20,354.40"/>
        <lane id=":A2_32_2" index="2" speed="13.89" length="104.62" shape="45.60,414.40 15.15,410.65 -6.60,399.40 -19.65,380.65 -24.00,354.40"/>
        <lane id=":A2_32_3" index="3" speed="13.89" length="99.46" shape="45.60,411.20 16.55,407.65 -4.20,397.00 -16.65,379.25 -20.80,354.40"/>
        <lane id=":A2_32_4" index="4" speed="13.89" length="94.31" shape="45.60,408.00 17.95,404.65 -1.80,394.60 -13.65,377.85 -17.60,354.40"/>
        <lane id=":A2_32_5" index="5" speed="13.89" length="89.16" shape="45.60,404.80 19.35,401.65 0.60,392.20 -10.65,376.45 -14.40,354.40"/>
        <lane id=":A2_32_6" index="6" speed="13.89" length="84.00" shape="45.60,401.60 20.75,398.65 3.00,389.80 -7.65,375.05 -11.20,354.40"/>
        <lane id=":A2_32_7" index="7" speed="13.89" length="81.35" shape="45.60,401.60 22.15,398.65 5.40,389.80 -4.65,375.05 -8.00,354.40"/>
        <lane id=":A2_32_8" index="8" speed="13.89" length="78.72" shape="45.60,401.60 23.55,398.65 7.80,389.80 -1.65,375.05 -4.80,354.40"/>
        <lane id=":A2_32_9" index="9" speed="13.89" length="76.12" shape="45.60,401.60 24.95,398.65 10.20,389.80 1.35,375.05 -1.60,354.40"/>
    </edge>
    <edge id=":A2_42" function="internal">
        <lane id=":A2_42_0" index="0" speed="3.65" length="4.67" shape="45.60,401.60 44.40,400.80 44.00,400.00 44.40,399.20 45.60,398.40"/>
    </edge>
    <edge id=":A2_43" function="internal">
        <lane id=":A2_43_0" index="0" speed="6.51" length="9.03" shape="40.00,354.40 40.35,356.85 41.40,358.60 43.15,359.65 45.60,360.00"/>
        <lane id=":A2_43_1" index="1" speed="7.33" length="11.73" shape="40.00,354.40 40.35,358.25 41.40,361.00 43.15,362.65 45.60,363.20"/>
        <lane id=":A2_43_2" index="2" speed="8.10" length="14.57" shape="40.00,354.40 40.35,359.65 41.40,363.40 43.15,365.65 45.60,366.40"/>
        <lane id=":A2_43_3" index="3" speed="8.83" length="17.50" shape="40.00,354.40 40.35,361.05 41.40,365.80 43.15,368.65 45.60,369.60"/>
        <lane id=":A2_43_4" index="4" speed="9.51" length="20.48" shape="40.00,354.40 40.35,362.45 41.40,368.20 43.15,371.65 45.60,372.80"/>
        <lane id=":A2_43_5" index="5" speed="10.16" length="23.50" shape="40.00,354.40 40.35,363.85 41.40,370.60 43.15,374.65 45.60,376.00"/>
        <lane id=":A2_43_6" index="6" speed="10.77" length="26.54" shape="40.00,354.40 40.35,365.25 41.40,373.00 43.15,377.65 45.60,379.20"/>
        <lane id=":A2_43_7" index="7" speed="11.35" length="29.61" shape="40.00,354.40 40.35,366.65 41.40,375.40 43.15,380.65 45.60,382.40"/>
        <lane id=":A2_43_8" index="8" speed="11.91" length="32.70" shape="40.00,354.40 40.35,368.05 41.40,377.80 43.15,383.65 45.60,385.60"/>
        <lane id=":A2_43_9" index="9" speed="12.44" length="35.80" shape="40.00,354.40 40.35,369.45 41.40,380.20 43.15,386.65 45.60,388.80"/>
    </edge>
    <edge id=":A2_53" function="internal">
        <lane id=":A2_53_0" index="0" speed="13.89" length="91.20" shape="40.00,354.40 40.00,445.60"/>
        <lane id=":A2_53_1" index="1" speed="13.89" length="91.20" shape="36.80,354.40 36.80,445.60"/>
        <lane id=":A2_53_2" index="2" speed="13.89" length="91.20" shape="33.60,354.40 33.60,445.60"/>
        <lane id=":A2_53_3" index="3" speed="13.89" length="91.20" shape="30.40,354.40 30.40,445.60"/>
        <lane id=":A2_53_4" index="4" speed="13.89" length="91.20" shape="27.20,354.40 27.20,445.60"/>
        <lane id=":A2_53_5" index="5" speed="13.89" length="91.20" shape="24.00,354.40 24.00,445.60"/>
        <lane id=":A2_53_6" index="6" speed="13.89" length="91.20" shape="20.80,354.40 20.80,445.60"/>
        <lane id=":A2_53_7" index="7" speed="13.89" length="91.20" shape="17.60,354.40 17.60,445.60"/>
        <lane id=":A2_53_8" index="8" speed="13.89" length="91.20" shape="14.40,354.40 14.40,445.60"/>
        <lane id=":A2_53_9" index="9" speed="13.89" length="91.20" shape="11.20,354.40 11.20,445.60"/>
        <lane id=":A2_53_10" index="10" speed="13.89" length="91.20" shape="8.00,354.40 8.00,445.60"/>
        <lane id=":A2_53_11" index="11" speed="13.89" length="91.20" shape="4.80,354.40 4.80,445.60"/>
        <lane id=":A2_53_12" index="12" speed="13.89" length="91.20" shape="1.60,354.40 1.60,445.60"/>
    </edge>
    <edge id=":A2_66" function="internal">
        <lane id=":A2_66_0" index="0" speed="3.65" length="1.44" shape="1.60,354.40 0.80,355.60"/>
    </edge>
    <edge id=":A2_76" function="internal">
        <lane id=":A2_76_0" index="0" speed="3.65" length="3.23" shape="0.80,355.60 0.00,356.00 -0.80,355.60 -1.60,354.40"/>
    </edge>
    <edge id=":A3_0" function="internal">
        <lane id=":A3_0_0" index="0" speed="13.89" length="91.27" shape="-40.00,645.60 -40.00,554.40"/>
        <lane id=":A3_0_1" index="1" speed="13.89" length="91.27" shape="-36.80,645.60 -36.80,554.40"/>
        <lane id=":A3_0_2" index="2" speed="13.89" length="91.27" shape="-33.60,645.60 -33.60,554.40"/>
        <lane id=":A3_0_3" index="3" speed="13.89" length="91.27" shape="-30.40,645.60 -30.40,554.40"/>
        <lane id=":A3_0_4" index="4" speed="13.89" length="91.27" shape="-27.20,645.60 -27.20,554.40"/>
        <lane id=":A3_0_5" index="5" speed="13.89" length="91.27" shape="-24.00,645.60 -24.00,554.40"/>
        <lane id=":A3_0_6" index="6" speed="13.89" length="91.27" shape="-20.80,645.60 -20.80,554.40"/>
        <lane id=":A3_0_7" index="7" speed="13.89" length="91.27" shape="-17.60,645.60 -17.60,554.40"/>
        <lane id=":A3_0_8" index="8" speed="13.89" length="91.27" shape="-14.40,645.60 -14.40,554.40"/>
        <lane id=":A3_0_9" index="9" speed="13.89" length="91.27" shape="-11.20,645.60 -11.20,554.40"/>
        <lane id=":A3_0_10" index="10" speed="13.89" length="91.27" shape="-11.20,645.60 -8.00,554.40"/>
        <lane id=":A3_0_11" index="11" speed="13.89" length="91.27" shape="-11.20,645.60 -4.80,554.40"/>
        <lane id=":A3_0_12" index="12" speed="13.89" length="91.27" shape="-11.20,645.60 -9.70,618.45 -6.40,600.00 -3.10,581.55 -1.60,554.40"/>
    </edge>
    <edge id=":A3_13" function="internal">
        <lane id=":A3_13_0" index="0" speed="13.89" length="39.48" shape="-8.00,645.60 -4.65,615.15 -0.94,607.12"/>
        <lane id=":A3_13_1" index="1" speed="13.89" length="30.94" shape="-4.80,645.60 -1.65,616.55 -0.94,614.99"/>
        <lane id=":A3_13_2" index="2" speed="13.89" length="6.65" shape="-1.60,645.60 -0.89,638.99"/>
        <lane id=":A3_13_3" index="3" speed="13.89" length="6.32" shape="-1.60,645.60 -0.89,639.32"/>
        <lane id=":A3_13_4" index="4" speed="13.89" length="5.99" shape="-1.60,645.60 -0.89,639.65"/>
        <lane id=":A3_13_5" index="5" speed="13.89" length="5.66" shape="-1.60,645.60 -0.89,639.98"/>
        <lane id=":A3_13_6" index="6" speed="13.89" length="5.34" shape="-1.60,645.60 -0.89,640.31"/>
        <lane id=":A3_13_7" index="7" speed="13.89" length="5.01" shape="-1.60,645.60 -0.89,640.64"/>
    </edge>
    <edge id=":A3_21" function="internal">
        <lane id=":A3_21_0" index="0" speed="3.65" length="1.44" shape="-1.60,645.60 -0.80,644.40"/>
    </edge>
    <edge id=":A3_67" function="internal">
        <lane id=":A3_67_0" index="0" speed="13.89" length="60.20" shape="-0.94,607.12 5.40,593.40 22.15,580.35 45.60,576.00"/>
    </edge>
    <edge id=":A3_68" function="internal">
        <lane id=":A3_68_0" index="0" speed="13.89" length="63.60" shape="-0.94,614.99 7.80,595.80 23.55,583.35 45.60,579.20"/>
    </edge>
    <edge id=":A3_69" function="internal">
        <lane id=":A3_69_0" index="0" speed="13.89" length="82.75" shape="-0.89,638.99 1.35,617.95 10.20,598.20 24.95,586.35 45.60,582.40"/>
    </edge>
    <edge id=":A3_70" function="internal">
        <lane id=":A3_70_0" index="0" speed="13.89" length="80.37" shape="-0.89,639.32 1.35,619.35 10.20,600.60 24.95,589.35 45.60,585.60"/>
    </edge>
    <edge id=":A3_71" function="internal">
        <lane id=":A3_71_0" index="0" speed="13.89" length="78.01" shape="-0.89,639.65 1.35,620.75 10.20,603.00 24.95,592.35 45.60,588.80"/>
    </edge>
    <edge id=":A3_72" function="internal">
        <lane id=":A3_72_0" index="0" speed="13.89" length="75.68" shape="-0.89,639.98 1.35,622.15 10.20,605.40 24.95,595.35 45.60,592.00"/>
    </edge>
    <edge id=":A3_73" function="internal">
        <lane id=":A3_73_0" index="0" speed="13.89" length="73.38" shape="-0.89,640.31 1.35,623.55 10.20,607.80 24.95,598.35 45.60,595.20"/>
    </edge>
    <edge id=":A3_74" function="internal">